
#======================================================================
# CRYSTAL DATA
#----------------------------------------------------------------------
data_VESTA_phase_1

_chemical_name_common                  'New structure'
_cell_length_a                         21.669939
_cell_length_b                         21.669939
_cell_length_c                         3.258699
_cell_angle_alpha                      90.000000
_cell_angle_beta                       90.000000
_cell_angle_gamma                      120.000000
_cell_volume                           1325.227117
_space_group_name_H-M_alt              'P 1'
_space_group_IT_number                 1

loop_
_space_group_symop_operation_xyz
   'x, y, z'

loop_
   _atom_site_label
   _atom_site_occupancy
   _atom_site_fract_x
   _atom_site_fract_y
   _atom_site_fract_z
   _atom_site_adp_type
   _atom_site_B_iso_or_equiv
   _atom_site_type_symbol
   C           1.0     0.266498     0.599766     0.999165    Biso  1.000000 C
   C           1.0     0.534534     0.398133     0.997153    Biso  1.000000 C
   C           1.0     0.334019     0.535668     0.004243    Biso  1.000000 C
   C           1.0     0.400234     0.666733     0.999165    Biso  1.000000 C
   C           1.0     0.601867     0.136401     0.997153    Biso  1.000000 C
   C           1.0     0.464332     0.798352     0.004243    Biso  1.000000 C
   C           1.0     0.333267     0.733501     0.999165    Biso  1.000000 C
   C           1.0     0.863599     0.465466     0.997153    Biso  1.000000 C
   C           1.0     0.201648     0.665981     0.004243    Biso  1.000000 C
   C           1.0     0.733501     0.400234     0.999165    Biso  1.000000 C
   C           1.0     0.465466     0.601867     0.997153    Biso  1.000000 C
   C           1.0     0.665981     0.464332     0.004243    Biso  1.000000 C
   C           1.0     0.599766     0.333267     0.999165    Biso  1.000000 C
   C           1.0     0.398133     0.863599     0.997153    Biso  1.000000 C
   C           1.0     0.535668     0.201648     0.004243    Biso  1.000000 C
   C           1.0     0.666733     0.266498     0.999165    Biso  1.000000 C
   C           1.0     0.136401     0.534534     0.997153    Biso  1.000000 C
   C           1.0     0.798352     0.334019     0.004243    Biso  1.000000 C
   C           1.0     0.599766     0.266498     0.000835    Biso  1.000000 C
   C           1.0     0.398133     0.534534     0.002847    Biso  1.000000 C
   C           1.0     0.535668     0.334019     0.995757    Biso  1.000000 C
   C           1.0     0.666733     0.400234     0.000835    Biso  1.000000 C
   C           1.0     0.136401     0.601867     0.002847    Biso  1.000000 C
   C           1.0     0.798352     0.464332     0.995757    Biso  1.000000 C
   C           1.0     0.733501     0.333267     0.000835    Biso  1.000000 C
   C           1.0     0.465466     0.863599     0.002847    Biso  1.000000 C
   C           1.0     0.665981     0.201648     0.995757    Biso  1.000000 C
   C           1.0     0.400234     0.733501     0.000835    Biso  1.000000 C
   C           1.0     0.601867     0.465466     0.002847    Biso  1.000000 C
   C           1.0     0.464332     0.665981     0.995757    Biso  1.000000 C
   C           1.0     0.333267     0.599766     0.000835    Biso  1.000000 C
   C           1.0     0.863599     0.398133     0.002847    Biso  1.000000 C
   C           1.0     0.201648     0.535668     0.995757    Biso  1.000000 C
   C           1.0     0.266498     0.666733     0.000835    Biso  1.000000 C
   C           1.0     0.534534     0.136401     0.002847    Biso  1.000000 C
   C           1.0     0.334019     0.798352     0.995757    Biso  1.000000 C
   O           1.0     0.074854     0.477208     0.994327    Biso  1.000000 O
   O           1.0     0.522791     0.597645     0.994327    Biso  1.000000 O
   O           1.0     0.402355     0.925146     0.994327    Biso  1.000000 O
   O           1.0     0.925146     0.522791     0.994327    Biso  1.000000 O
   O           1.0     0.477208     0.402355     0.994327    Biso  1.000000 O
   O           1.0     0.597645     0.074854     0.994327    Biso  1.000000 O
   O           1.0     0.477209     0.074854     0.005673    Biso  1.000000 O
   O           1.0     0.597645     0.522791     0.005673    Biso  1.000000 O
   O           1.0     0.925146     0.402355     0.005673    Biso  1.000000 O
   O           1.0     0.522791     0.925146     0.005673    Biso  1.000000 O
   O           1.0     0.402355     0.477208     0.005673    Biso  1.000000 O
   O           1.0     0.074854     0.597645     0.005673    Biso  1.000000 O
   Cu          1.0     0.500000     0.500000     0.000000    Biso  1.000000 Cu
   Cu          1.0     0.500000     0.000000     0.000000    Biso  1.000000 Cu
   Cu          1.0     0.000000     0.500000     0.000000    Biso  1.000000 Cu
   H           1.0     0.515938     0.715061     0.991622    Biso  1.000000 H
   H           1.0     0.284939     0.800876     0.991622    Biso  1.000000 H
   H           1.0     0.199123     0.484062     0.991622    Biso  1.000000 H
   H           1.0     0.484062     0.284939     0.991622    Biso  1.000000 H
   H           1.0     0.715061     0.199123     0.991622    Biso  1.000000 H
   H           1.0     0.800877     0.515938     0.991622    Biso  1.000000 H
   H           1.0     0.715061     0.515938     0.008378    Biso  1.000000 H
   H           1.0     0.800877     0.284939     0.008378    Biso  1.000000 H
   H           1.0     0.484062     0.199123     0.008378    Biso  1.000000 H
   H           1.0     0.284939     0.484062     0.008378    Biso  1.000000 H
   H           1.0     0.199123     0.715061     0.008378    Biso  1.000000 H
   H           1.0     0.515938     0.800876     0.008378    Biso  1.000000 H
